 &time_control
 run_days                            = 0,
 run_hours                           = 12,
 run_minutes                         = 0,
 run_seconds                         = 0,
 start_year                          = 2012, 2012, 2999,
 start_month                         = 05,   05,   06,
 start_day                           = 29,   29,   11,
 start_hour                          = 18,   18,   12,
 end_year                            = 2012, 2012, 2999,
 end_month                           = 05,   05,   06,
 end_day                             = 30,   30,   12,
 end_hour                            = 06,   06,   12,
 interval_seconds                    = 21600
 input_from_file                     = .true.,.true.,.true.,
 history_interval                    = 10,   10,   60,
 frames_per_outfile                  = 1, 1, 1000,
 restart                             = .false.,
 restart_interval                    = 7200,
 auxinput5_interval_m                = 0, 0, 60
 io_form_history                     = 2
 io_form_restart                     = 2
 io_form_input                       = 2
 io_form_boundary                    = 2
 io_form_auxinput4                   = 0
 io_form_auxinput5                   = 0
 io_form_auxinput18                  = 2,
 auxinput18_inname                   = 'ltgda_d<domain>_2012-05-29.nc',
 frames_per_auxinput18               = 9999,9999,
 auxinput18_interval_m               = 10,10,
 auxinput18_end_h                    = 9999,9999,
 debug_level                         = 0,
 /

 &domains
 time_step                           = 10,
 time_step_fract_num                 = 0,
 time_step_fract_den                 = 1,
 max_dom                             = 2,
 e_we                                = 103, 145,
 e_sn                                = 79, 118,
 e_vert                              = 90,    90,    20,
 dx                                  = 36000, 12000,
 dy                                  = 36000, 12000,
 p_top_requested                     = 5000,
 num_metgrid_levels                  = 40,
 num_metgrid_soil_levels             = 4,
 grid_id                             = 1,     2,     3,
 parent_id                           = 0,     1,     2,
 i_parent_start                      = 1,     23,    30,
 j_parent_start                      = 1,     16,    30,
 parent_grid_ratio                   = 1,     3,     3,
 parent_time_step_ratio              = 1,     3,     3,
 feedback                            = 1,
 smooth_option                       = 0
 /

 &physics
 mp_physics                          = 10,    10,     2,
 progn                               = 1,     1,     0,
 ra_lw_physics                       = 4,     4,     1,
 ra_sw_physics                       = 4,     4,     2,
 radt                                = 10,    10,    10,
 sf_sfclay_physics                   = 2,     2,     1,
 sf_surface_physics                  = 2,     2,     2,
 bl_pbl_physics                      = 2,     2,     1,
 bldt                                = 0,     0,     0,
 cu_physics                          = 10,    10,     0,
 cudt                                = 0,     0,     1,
 ltg_assim                           = .true.,
 suppress_opt                        = 2,
 isfflx                              = 1,
 ifsnow                              = 1,
 icloud                              = 1,
 surface_input_source                = 3,
 num_land_cat                        = 21,
 sf_urban_physics                    = 0,     0,     0,
 cu_rad_feedback                     = .true., .true.,
 /

 &fdda
 /

 &dynamics
 hybrid_opt                          = 2, 
 w_damping                           = 0,
 diff_opt                            = 1,      1,      1,
 km_opt                              = 4,      4,      4,
 diff_6th_opt                        = 0,      0,      0,
 diff_6th_factor                     = 0.12,   0.12,   0.12,
 base_temp                           = 290.
 damp_opt                            = 3,
 zdamp                               = 5000.,  5000.,  5000.,
 dampcoef                            = 0.2,    0.2,    0.2
 tracer_opt                          = 2, 2,
 khdif                               = 0,      0,      0,
 kvdif                               = 0,      0,      0,
 non_hydrostatic                     = .true., .true., .true.,
 moist_adv_opt                       = 2,      2,      1,     
 scalar_adv_opt                      = 2,      2,      1,     
 chem_adv_opt                        = 2,      2,      1,   
 tke_adv_opt                         = 2,      2,
 /

 &bdy_control
 spec_bdy_width                      = 5,
 specified                           = .true.,
 /

 &grib2
 /

 &chem
 kemit                               = 0,
 chem_opt                            = 9,        9,
 bioemdt                             = 0,       0,
 photdt                              = 30,       30,
 chemdt                              = 0,       0,
 io_style_emissions                  = 0,
 emiss_inpt_opt                      = 0,        0,
 emiss_opt                           = 0,        0,
 chem_in_opt                         = 0,        0,
 phot_opt                            = 1,        1,
 gas_drydep_opt                      = 1,        1,
 aer_drydep_opt                      = 1,        1,
 bio_emiss_opt                       = 0,        0,
 dust_opt                            = 0,
 dmsemis_opt                         = 0,
 seas_opt                            = 0,
 gas_bc_opt                          = 1,        1,
 gas_ic_opt                          = 1,        1,
 aer_bc_opt                          = 0,        0,
 aer_ic_opt                          = 0,        0,
 gaschem_onoff                       = 1,        1,
 aerchem_onoff                       = 0,        0,
 wetscav_onoff                       = 0,        0,
 cldchem_onoff                       = 0,        0,
 vertmix_onoff                       = 1,        1,
 chem_conv_tr                        = 1,        1,
 kfcup_diag                          = 1,        1,
 biomass_burn_opt                    = 0,        0,
 plumerisefire_frq                   = 30,       30,
 aer_ra_feedback                     = 0,        0,
 have_bcs_chem                       = .true., .true.,
 /

 &namelist_quilt
 nio_tasks_per_group = 0,
 nio_groups = 1,
 /
